# Name file for MODFLOW-2005, generated by Flopy version 3.3.1.
#xll:0.0; yll:0.0; rotation:0.0; units:meters; lenuni:2; start_datetime:1-1-1970
LIST               2  tutorial1.list
DIS               11  tutorial1.dis
BAS6              13  tutorial1.bas
LPF               15  tutorial1.lpf
OC                14  tutorial1.oc
PCG               27  tutorial1.pcg
DATA(BINARY)      53  tutorial1.cbc REPLACE
DATA(BINARY)      51  tutorial1.hds REPLACE
